Circuit: * C:\Users\Fraser Montandon\Desktop\4022s\ltspice\current source.asc

WARNING: Less than two connections to node N001.  This node is used by V3.
Direct Newton iteration failed to find .op point.  (Use ".option noopiter" to skip.)
Starting Gmin stepping
Gmin = 10
Gmin = 1.07374
vernier = 0.5
vernier = 0.25
vernier = 0.125
vernier = 0.0625
Gmin = 1.08884
vernier = 0.03125
vernier = 0.015625
Gmin = 1.03122
vernier = 0.0078125
vernier = 0.00390625
Gmin = 1.01823
vernier = 0.00520833
vernier = 0.00260417
Gmin = 1.01162
vernier = 0.00347222
vernier = 0.00173611
vernier = 0.00231481
vernier = 0.00115741
Gmin = 1.00877
vernier = 0.00154321
vernier = 0.000771604
Gmin = 1.00673
vernier = 0.00102881
vernier = 0.000514403
vernier = 0.00068587
Gmin = 1.00553
vernier = 0.000514403
vernier = 0.00068587
vernier = 0.000514402
Gmin = 1.00471
Gmin = 0
Gmin stepping failed

Starting source stepping with srcstepmethod=0
Source Step = 3.0303%
Source Step = 33.3333%
Source Step = 63.6364%
Source Step = 93.9394%
Source Step = 97.8812%
Source Step = 97.9255%
Source Step = 97.9551%
Source Step = 97.9847%
Source Step = 98.0143%
Source Step = 98.0439%
vernier = 0.00146484
Source Step = 98.0809%
Source Step = 98.1253%
Source Step = 98.1697%
Source Step = 98.2141%
Source Step = 98.2585%
vernier = 0.00219727
Source Step = 98.3117%
Source Step = 98.3783%
Source Step = 98.4449%
Source Step = 98.5115%
Source Step = 98.5781%
vernier = 0.0032959
Source Step = 98.6546%
Source Step = 98.7545%
Source Step = 98.8544%
Source Step = 98.9543%
Source Step = 99.0541%
vernier = 0.00494385
Source Step = 99.164%
Source Step = 99.3138%
Source Step = 99.4636%
Source Step = 99.6134%
Source Step = 99.7633%
vernier = 0.00741577
Source Step = 99.9206%
Source stepping succeeded in finding the operating point.


Date: Sun Oct 03 12:58:23 2021
Total elapsed time: 0.833 seconds.

tnom = 27
temp = 27
method = modified trap
totiter = 64282
traniter = 56475
tranpoints = 17421
accept = 11969
rejected = 5452
matrix size = 51
fillins = 47
solver = Normal
Matrix Compiler1: 5.67 KB object code size  1.0/0.5/[0.3]
Matrix Compiler2: 5.09 KB object code size  0.6/0.6/[0.3]

