Circuit: * C:\Users\Fraser Montandon\Desktop\4022s\ltspice\Draft1.asc

WARNING: Less than two connections to node NC_01.  This node is used by R1.
Direct Newton iteration for .op point succeeded.

Date: Thu Oct 21 12:11:30 2021
Total elapsed time: 1.357 seconds.

tnom = 27
temp = 27
method = modified trap
totiter = 203107
traniter = 203102
tranpoints = 66698
accept = 46292
rejected = 20406
matrix size = 8
fillins = 0
solver = Normal
Matrix Compiler1:      15 opcodes  0.1/[0.0]/0.0
Matrix Compiler2: 526 bytes object code size  0.0/0.1/[0.0]

